159

 Mo       4.70285   20.379342   8.544577 
 Mo       7.160482  26.551275   8.609401 
 Mo       8.4355    6.368462    8.575095 
 Mo       9.209041  2.862261    9.692115 
 Mo       10.679974 26.006933   9.655024
 Mo       12.789122 23.152099   8.569415
 Mo       14.349705 26.443269   9.692414
 Mo       4.711457  23.936549   9.63765 
 Mo       11.975331 5.506347    9.501728
 Mo       15.273869 7.055997    8.544591
 Mo       2.245109  14.206432   8.610752 
 Mo       12.816916 13.228328   8.609146
 Mo       17.732368 0.883134    8.610776
 Mo       0.968088  7.743305    8.576877 
 Mo       11.541199 19.692195   8.575244
 Mo       19.008728 21.06676    8.576583
 Mo       0.19479   11.24962    9.692986
 Mo       10.767621 16.185832   9.691665
 Mo       19.781996 24.572983   9.693587
 Mo       19.869451 14.752511   9.65509 
 Mo       9.297255  12.683439   9.654053 
 Mo       0.107928  1.429055    9.655624 
 Mo       17.760597 17.607496   8.569198
 Mo       7.188062  9.828587    8.569019 
 Mo       2.216679  4.284192    8.569634 
 Mo       16.198957 14.316691   9.691804
 Mo       5.627788  13.119339   9.691958 
 Mo       3.778487  0.992974    9.692061 
 Mo       4.693402  16.822284   9.637591 
 Mo       15.265758 10.613406   9.636914
 Mo       15.283923 3.498975    9.637606
 Mo       18.57202  8.606911    9.501021                                          
 Mo       8.001369  18.829769   9.501644 
 Mo       1.404635  21.929898   9.501581 
 Nb       12.306754 2.218091    8.65649 
 Nb       18.242271 11.895709   8.655054
 Nb       7.670129  15.541421   8.656124 
 Nb       1.734794  25.218838   8.655849 
 Te       16.247357 23.447401   9.156066
 Te       14.301934 17.311678   9.154669
 Te       3.729494  10.123238   9.155296 
 Te       5.67495   3.987779    9.154897 
 Mo       4.702749  7.055951    9.620584 
 Mo       15.27485  20.379374   9.620465 
 O        4.702677  20.37937    6.873228 
 O        4.703306  7.055984    11.289351
 O        7.148933  26.526372   6.935512 
 O        8.441819  6.307413    6.904479 
 O        9.207102  2.853137    11.371376
 O        10.705821 26.016426   11.33270
 O        12.745613 23.23172    6.898831
 O        14.307477 26.414934   11.36871
 O        12.311254 2.21715     6.944932
 O        4.722764  23.909856   11.316386
 O        11.990916 5.584669    11.17789
 O        16.38795  23.643694   10.975807
 O        15.687578 5.237653    9.11693
 O        16.810303 2.556061    9.133051
 O        5.532514  0.807775    9.15157 
 O        16.949136 21.333394   9.022917
 O        19.474592 1.610706    9.145806
 O        21.078958 26.059998   9.250813
 O        18.970104 22.954642   9.157828
 O        3.952208  5.308247    9.007562 
 O        0.822912  3.101789    9.17982 
 O        0.382878  23.697756   9.136467 
 O        20.939918 21.069763   9.019134
 O        1.921415  0.675806    9.062052 
 O        2.75913   23.456597   9.141185 
 O        2.781793  20.817632   8.95519 
 O        1.30793   5.910207    8.976286 
 O        3.596105  2.839383    9.070728 
 O        3.653592  25.655779   9.250794 
 O        7.92813   1.678813    9.106472 
 O        15.273732 7.05582     6.873369
 O        15.274733 20.378828   11.28942
 O        2.256911  14.229512   6.936948 
 O        12.82887  13.203682   6.93537 
 O        17.720882 0.906275    6.93687 
 O        0.96114   7.804031    6.906301 
 O        11.535049 19.631349   6.904488
 O        19.015773 21.127731   6.905827                                        
 O        0.194767  11.258754   11.372134
 O        10.769366 16.176311   11.37092
 O        19.781741 24.581924   11.37297
 O        19.84321  14.742161   11.332646
 O        9.27097   12.692863   11.331589
 O        0.134052  1.419036    11.333285
 O        17.804967 17.528503   6.898662
 O        7.231461  9.908031    6.898594 
 O        2.172407  4.205267    6.899163 
 O        16.240051 14.345461   11.36798
 O        5.670519  13.09064    11.368107
 O        3.738004  1.021762    11.36834 
 O        18.238282 11.89844    6.943504
 O        7.665091  15.540488   6.944527 
 O        1.738533  25.221557   6.944273 
 O        4.680115  16.849089   11.316207
 O        15.254491 10.586843   11.31544
 O        15.297207 3.525734    11.31621
 O        18.555016 8.530623    11.17720
 O        7.98556   18.908004   11.177893
 O        1.421279  21.853375   11.177966
 O        14.161117 17.11415    10.97440
 O        3.589195  10.320263   10.975245
 O        5.816164  3.79081     10.974723
 O        14.861042 8.874562    9.117205 
 O        4.28938   18.560902   9.116958 
 O        5.115891  22.197782   9.117465 
 O        13.738845 11.556308   9.133702
 O        3.167074  15.879162   9.133217 
 O        6.238431  24.879322   9.134268 
 O        3.872921  13.303912   9.154307 
 O        14.444684 14.131517   9.152103
 O        16.104403 26.627663   9.153951
 O        13.600485 19.425325   9.022446
 O        3.028024  8.010025    9.023151 
 O        6.376649  6.101863    9.022436 
 O        11.074439 12.501647   9.144478
 O        0.502838  14.933968   9.145535 
 O        8.90293   25.824764   9.144971 
 O        9.469835  14.699608   9.249845 
 O        20.041956 12.736633   9.249773
 O        10.507064 1.37611     9.250629
 O        11.579457 17.804238   9.155867
 O        1.006815  9.631171    9.157686 
 O        8.397263  4.480513    9.155857 
 O        5.452477  8.804089    9.007186 
 O        16.024904 18.631585   9.006916
 O        14.524552 22.127414   9.007538
 O        8.582283  11.010656   9.178409
 O        19.154462 16.425277   9.179534 
 O        11.395068 24.334219   9.179185
 O        9.022518  17.061857   9.136685
 O        19.593936 10.374563   9.135709
 O        10.954178 3.738364    9.137128
 O        9.609803  19.68921    9.017426
 O        20.180758 7.74664     9.019138
 O        10.366909 6.365635    9.017414
 O        7.484009  13.43686    9.060137
 O        18.055904 13.999392   9.061591
 O        12.49317  0.113534    9.060896 
 O        6.646313  17.302744   9.143835 
 O        17.21781  10.13353    9.140195 
 O        13.330613 3.979461    9.144057
 O        6.623723  19.941233   8.954825 
 O        17.194867 7.494617    8.954696
 O        13.352986 6.617932    8.955067
 O        8.096187  8.201882    8.974535 
 O        18.669095 19.233561   8.975845
 O        11.88066  21.52546    8.974996 
 O        5.809323  11.273068   9.070888 
 O        16.381349 16.162772   9.07028 
 O        14.168199 24.596566   9.071411
 O        5.751733  15.103505   9.250907
 O        16.323667 12.332654   9.250139
 O        14.225562 1.780306    9.250792                                        
 O        1.47691   12.432705   9.109158
 O        12.048697 15.002495   9.106096
 O        18.500138 25.756144   9.10945                                       

