90

C   2.20589351     2.56835271    -2.27834431
H   2.64708251     3.55958304    -2.32833119
H   2.52337376     2.12287548    -1.34172135
C   2.68131698     1.71330539    -3.45264140
H   3.75180751     1.54996509    -3.38227741
H   2.51147658     2.24762242    -4.38616034
C   1.95281563     0.36257292    -3.50537956
H   2.21176375    -0.20046505    -2.61268662
C   2.39496956    -0.43928297    -4.73224464
H   3.47759234    -0.48872873    -4.77515365
H   2.02708693    -1.45864874    -4.71283876
H   2.05364872     0.02423976    -5.65410759
C  -1.78937397     4.24810106     0.26011987
H  -1.45171363     5.28181098     0.32437799
H  -2.86071859     4.23693298     0.39609386
C  -1.39846288     3.64248259    -1.08963020
H  -1.86468450     2.66530509    -1.16264031
C  -1.90157038     4.52690507    -2.23217310
H  -1.38815684     5.48413652    -2.25193999
H  -1.76834953     4.05557618    -3.19854315
H  -2.96186931     4.72650134    -2.11690908
C   1.94909650     0.38799281     3.72482145
H   2.23851562    -0.17144452     2.83920938
C   2.37854609    -0.40571287     4.96130436
H   2.04779089    -1.43680627     4.92121124
H   3.46041063    -0.41898725     5.03832436
H   1.99258037     0.03989135     5.87468741
C   2.64751842     1.75625079     3.69347060
H   2.44238587     2.28168732     4.62484366
H   3.72306767     1.61975693     3.64772259
C   2.18280731     2.60936842     2.51231670
H   2.54584144     2.18181375     1.58309565
H   2.59180226     3.61305447     2.58603881
C   0.12363395     3.44389543    -1.09737222
H   0.60391845     4.42248052    -1.09433010
C  -0.43326599    -0.62746306     3.65432832
H  -0.14799926    -1.21300599     4.52498326
C   0.68520093     2.68400982    -2.29432830
H   0.38844917     3.22502484    -3.19031524
C  -0.65923210    -2.67147456     2.47317609
H  -0.29017874    -3.21534621     3.34005603
C  -0.43906942    -0.62503929    -3.47289568
H  -0.18224013    -1.19527183    -4.36286574
C   0.13062009     3.41311278     1.25702478
H   0.56736097     4.41240713     1.25192790
C  -2.18280731    -2.60936842     2.51231670
H  -2.54584144    -2.18181375     1.58309565
H  -2.59180226    -3.61305447     2.58603881
C  -2.64751842    -1.75625079     3.69347060
H  -2.44238587    -2.28168732     4.62484366
H  -3.72306767    -1.61975693     3.64772259
C  -1.94909650    -0.38799281     3.72482145
H  -2.23851562     0.17144452     2.83920938
C  -2.37854609     0.40571287     4.96130436
H  -1.99258037    -0.03989135     5.87468741
H  -2.04779089     1.43680627     4.92121124
H  -3.46041063     0.41898725     5.03832436
C   1.39846288    -3.64248259    -1.08963020
H   1.86468450    -2.66530509    -1.16264031
C   1.90157038    -4.52690507    -2.23217310
H   1.76834953    -4.05557618    -3.19854315
H   2.96186931    -4.72650134    -2.11690908
H   1.38815684    -5.48413652    -2.25193999
C   1.78937397    -4.24810106     0.26011987
H   1.45171363    -5.28181098     0.32437799
H   2.86071859    -4.23693298     0.39609386
C   0.43326599     0.62746306     3.65432832
H   0.14799926     1.21300599     4.52498326
C  -0.12363395    -3.44389543    -1.09737222
H  -0.60391845    -4.42248052    -1.09433010
C  -0.13062009    -3.41311278     1.25702478
H  -0.56736097    -4.41240713     1.25192790
C   0.43906942     0.62503929    -3.47289568
H   0.18224013     1.19527183    -4.36286574
C   0.65923210     2.67147456     2.47317609
H   0.29017874     3.21534621     3.34005603
C  -0.68520093    -2.68400982    -2.29432830
H  -0.38844917    -3.22502484    -3.19031524
C  -1.95281563    -0.36257292    -3.50537956
H  -2.21176375     0.20046505    -2.61268662
C  -2.39496956     0.43928297    -4.73224464
H  -3.47759234     0.48872873    -4.77515365
H  -2.02708693     1.45864874    -4.71283876
H  -2.05364872    -0.02423976    -5.65410759
C  -2.68131698    -1.71330539    -3.45264140
H  -2.51147658    -2.24762242    -4.38616034
H  -3.75180751    -1.54996509    -3.38227741
C  -2.20589351    -2.56835271    -2.27834431
H  -2.52337376    -2.12287548    -1.34172135
H  -2.64708251    -3.55958304    -2.32833119
